Respostas/21/Complementar_SMT/Arquivos_DSS/6_SMT_mono_i.dss
// -----------------------------------------------------------------------//
// Autor: Paulo Radatz
// e-mail: paulo.radatz@gmail.com
// -----------------------------------------------------------------------//

ClearAll

New Circuit.Thevenin bus1=A pu=1.05 basekv=13.8 model=ideal

New Line.L phases=3 bus1=A.1.2.3 bus2=B.1.2.3 length=0.5 units=km 
~ r1=0.195 x1=0.384432

New Load.LA_M1 phases=1 conn=wye bus1=B.1.0 kv=7.967 kw=1666.67 pf=0.92 model=2
New Load.LA_M2 phases=1 conn=wye bus1=B.1.0 kv=7.967 kw=1666.67 pf=0.92 model=3

Set voltagebases=[13.8 0.22]
Calcvoltagebases

New Energymeter.M element=Line.L terminal=1

!Solve

!dump Line.MinhaLinha Debug 